126
A21
O     -4.2713322     0.0633492    -3.1316652
O     -2.7432034     3.5304056    -3.1132789
O      0.8972186     4.3287187    -3.1172729
O      3.8038694     1.8619167    -3.1347186
O      3.8932632    -1.9932929    -3.1221591
O      1.0321962    -4.3763152    -3.1131051
O     -2.6154828    -3.4171166    -3.1293432
O     -4.4496491    -0.0673030     3.1151494
O     -2.6962315     3.3041160     3.1343058
O      1.0458660     4.1985347     3.1282787
O      4.0574627     1.9388799     3.1130691
O      3.9636263    -1.7946190     3.1226052
O      0.9062711    -4.1518108     3.1339662
O     -2.8221713    -3.4250947     3.1166294
N     -5.0550946    -1.0928100    -1.2662884
N     -5.1340043     1.1435553    -1.2578640
N     -4.0535067     3.3281198    -1.1967016
N     -2.3479806     4.7783159    -1.1871888
N      0.0299591     5.3293647    -1.2020303
N      2.1884690     4.7355495    -1.2200169
N      4.1063054     3.2341349    -1.2774518
N      5.0396427     1.2007414    -1.2736387
N      5.0309153    -1.2330399    -1.2350752
N      4.1743651    -3.3011113    -1.2164648
N      2.2621995    -4.8188285    -1.1854960
N      0.0687715    -5.2671233    -1.1874042
N     -2.3144522    -4.7563771    -1.2486305
N     -4.0024275    -3.2874098    -1.2610301
N     -5.1924647    -1.1484822     1.1911007
N     -5.1145734     1.0889622     1.2038698
N     -4.0852583     3.2975361     1.2651665
N     -2.2987645     4.6449136     1.2705300
N      0.0736381     5.1884256     1.2557795
N      2.2751699     4.7874589     1.2405057
N      4.1603655     3.2414550     1.1838562
N      5.1602892     1.2384398     1.1847278
N      5.1732262    -1.2022628     1.2232570
N      4.0956432    -3.1642221     1.2411216
N      2.1997360    -4.6898927     1.2721193
N      0.0330911    -5.2484180     1.2743864
N     -2.3353982    -4.6780534     1.2125739
N     -4.1375861    -3.3497810     1.1966109
C     -5.8053369    -0.7849803    -0.0661306
C     -5.8061510     0.7807072    -0.0318310
C     -2.9285964    -3.7655771    -2.0094641
C     -1.2245661    -5.5450041    -1.7767453
C     -4.2338363     4.0548443     0.0436895
C     -3.0113949     5.0334529     0.0713720
C      1.1086753    -4.7583108    -1.9634069
C      3.5592099    -4.4996181    -1.7426580
C      0.5305030     5.8488046     0.0495991
C      2.0566657     5.5009936     0.0040125
C      4.3013669    -2.1504236    -1.9897816
C      5.5468706    -0.0262232    -1.8459657
C      4.8931250     3.2295385    -0.0651371
C      5.5693998     1.8168633    -0.0760631
C      4.2479011     2.0672983    -2.0237262
C      5.5717623    -1.8149642    -0.0220297
C      4.8946020    -3.2254034     0.0326843
C     -4.9859198    -2.4106960    -1.8587371
C     -4.7461418     0.0413332    -2.0146494
C      2.0571109    -5.4936819     0.0765074
C      0.5312686    -5.8465641     0.0571254
C     -5.0685389     2.4845669    -1.7929069
C     -3.0056771     3.8301659    -1.9666257
C     -3.0130017    -5.0397046    -0.0167679
C     -4.2343171    -4.0603920    -0.0577890
C     -1.2877818     5.5960683    -1.7358315
C      1.0192427     4.7329938    -1.9791801
C     -5.1681608    -2.4889738     1.7350293
C     -4.8535370    -0.0455978     1.9705844
C      3.4599752     4.4032967    -1.8286348
C     -3.0599681    -3.7633253     1.9752722
C     -1.2869025    -5.4729676     1.8180779
C     -5.0868038     2.4063157     1.8049735
C     -2.9822943     3.6890282     2.0190765
C      1.0274456    -4.6235933     2.0220130
C      3.4720048    -4.3193864     1.8508976
C     -1.2232214     5.4141839     1.8564813
C      1.1196817     4.6533089     2.0051563
C      4.3495517    -2.0185520     1.9936571
C      5.7201597     0.0288892     1.7490412
C      3.5730480     4.4297654     1.7668366
C      4.4028741     2.1112464     1.9621716
H     -6.8142263    -1.2214156    -0.1316994
H      5.4872149     0.0463369     2.8174846
H      3.4356955     4.2201560     2.8314657
H      4.2598568     5.2775331     1.6242635
H      6.8085385     0.0296326     1.5894252
H      4.1595452    -5.1773379     1.7857750
H     -1.4698444     6.4854086     1.7894064
H     -1.1446939     5.1028757     2.9021094
H      3.2810979    -4.0589318     2.8960067
H     -1.5379091    -6.5396340     1.7145507
H     -6.0767360     2.8742272     1.6931625
H     -4.8462774     2.2627039     2.8622339
H     -1.2477393    -5.1876266     2.8732042
H      3.2561014     4.1861303    -2.8811100
H     -4.9664435    -2.3892976     2.8052591
H     -6.1480585    -2.9593551     1.5670121
H      4.1400846     5.2639151    -1.7357900
H     -5.2055412    -4.5751588    -0.1235433
H     -1.5312225     6.6554652    -1.5682157
H     -3.3046235    -6.1011266     0.0141696
H     -1.2439519     5.3749904    -2.8059910
H      0.3332641    -6.9298223     0.0626041
H     -6.0517898     2.9638141    -1.6716666
H      2.7097172    -6.3785652     0.1390129
H     -4.8141143     2.3906683    -2.8524852
H      5.6160300    -4.0545221     0.1009724
H     -5.9775334    -2.8857655    -1.7956615
H      6.6702553    -1.8594067    -0.0840793
H     -4.6921188    -2.2726336    -2.9033322
H      6.6684652     1.8588581    -0.1303469
H      5.2294557    -0.0432783    -2.8926324
H      5.6157919     4.0602111    -0.0834281
H      6.6459808    -0.0271370    -1.7754096
H      2.7065046     6.3891083    -0.0370668
H      4.2383141    -5.3487130    -1.5766366
H      0.3301941     6.9296867     0.1143822
H      3.4064910    -4.3313275    -2.8124808
H     -3.3016713     6.0938783     0.1342304
H     -1.1426757    -5.3001877    -2.8395283
H     -5.2066957     4.5707265     0.0377495
H     -1.4600172    -6.6114046    -1.6418418
H     -6.8169906     1.2170663    -0.0145165
