62
A23
C      1.3918224    -7.2167643     0.0000000
C     -5.5580134     4.8087592     0.0000000
C     -4.6466654     2.8514073     1.2599703
C     -4.6466654     2.8514073    -1.2599703
C      0.1504438    -5.4502503    -1.2600387
C      0.1504438    -5.4502503     1.2600387
C     -4.4655003     3.7274509     0.0000000
C      1.0000010    -5.7304022     0.0000000
C      2.9582347     1.7097438     0.0000000
C      4.1674288    -0.2572794     0.0000000
C      1.8579373     3.7396505     0.0000000
C     -0.6329567     3.9553753     0.0000000
C      3.1104889    -2.5231773     0.0000000
C      0.5502197     3.1102837     0.0000000
C      2.9690658    -1.0760598     0.0000000
C      4.4276552    -3.0426436     0.0000000
C     -0.4254974     5.3560069     0.0000000
C      2.2217595    -4.8049195     0.0000000
C     -3.0537125     4.3242049     0.0000000
C      1.7074355     0.9869693     0.0000000
C     -1.9500463     3.4713147     0.0000000
C      2.0336224    -3.4228387     0.0000000
C      5.5309181    -2.1172996     0.0000000
C      0.9271763     5.8498486     0.0000000
C      0.5119300     1.7262087     0.0000000
C      1.7508681    -0.4179463     0.0000000
C      3.5422436    -5.2981594     0.0000000
C     -2.8219132     5.7146465     0.0000000
C      4.6238808    -4.4328122     0.0000000
C     -1.5321521     6.2199870     0.0000000
N      4.1501961     1.0721777     0.0000000
N      3.0011951     3.0608558     0.0000000
N      5.4371370    -0.8207867     0.0000000
N      2.0036836     5.1211629     0.0000000
H     -2.1182665     2.3987501     0.0000000
H      1.0202250    -3.0333205     0.0000000
H      3.7211447    -6.3673382     0.0000000
H     -3.6590633     6.4033538     0.0000000
H     -0.4348210     1.1910000     0.0000000
H      0.8142624    -0.9708472     0.0000000
H      5.6386381    -4.8241057     0.0000000
H     -1.3647134     7.2946057     0.0000000
H      1.0717289     6.9330517     0.0000000
H      6.5416132    -2.5329546     0.0000000
H     -6.5421664     4.3287850     0.0000000
H      0.4848514    -7.8303075     0.0000000
H     -0.1935614    -4.4116190     1.2879661
H     -0.1935614    -4.4116190    -1.2879661
H     -3.9179978     2.0351665     1.2882017
H     -3.9179978     2.0351665    -1.2882017
H     -5.4965133     5.4456779     0.8890201
H     -5.4965133     5.4456779    -0.8890201
H      1.9744623    -7.4812786    -0.8890565
H      1.9744623    -7.4812786     0.8890565
H      0.7299755    -5.6403252    -2.1693182
H      0.7299755    -5.6403252     2.1693182
H     -4.5225674     3.4485031     2.1692988
H     -4.5225674     3.4485031    -2.1692988
H     -5.6502661     2.4112614     1.2687347
H     -5.6502661     2.4112614    -1.2687347
H     -0.7315807    -6.1006581     1.2690946
H     -0.7315807    -6.1006581    -1.2690946
