108
A27
C      5.0508426    -0.7835399     0.0009014
C      5.0508426     0.7835399    -0.0009014
N      4.3030580     1.1188875    -1.1982249
C      4.0381562     0.0016892    -1.9908769
N      4.4397547    -1.1153360    -1.2642324
N      4.3030580    -1.1188875     1.1982249
C      4.0381562    -0.0016892     1.9908769
N      4.4397547     1.1153360     1.2642324
O      3.5886250    -0.0058923     3.1177272
O      3.5886250     0.0058923    -3.1177272
C      4.2459149     2.4537292     1.7725811
C      4.2479493     2.4502056    -1.7725811
C      1.8468558    -4.7659280     0.0009014
C      3.2039868    -3.9823881    -0.0009014
N      3.1205140    -3.1671138    -1.1982249
C      2.0205410    -3.4963013    -1.9908769
N      1.2539680    -4.4026084    -1.2642324
N      1.1825440    -4.2860013     1.1982249
C      2.0176152    -3.4979905     1.9908769
N      3.1857867    -3.2872723     1.2642324
O      1.7892096    -3.1107866     3.1177272
O      1.7994154    -3.1048943    -3.1177272
C      4.2479493    -2.4502056     1.7725811
C      4.2459149    -2.4537292    -1.7725811
C     -1.8468558     4.7659280     0.0009014
C     -3.2039868     3.9823881    -0.0009014
N     -3.1205140     3.1671138    -1.1982249
C     -2.0205410     3.4963013    -1.9908769
N     -1.2539680     4.4026084    -1.2642324
N     -1.1825440     4.2860013     1.1982249
C     -2.0176152     3.4979905     1.9908769
N     -3.1857867     3.2872723     1.2642324
O     -1.7892096     3.1107866     3.1177272
O     -1.7994154     3.1048943    -3.1177272
C     -4.2479493     2.4502056     1.7725811
C     -4.2459149     2.4537292    -1.7725811
C      3.2039868     3.9823881     0.0009014
C      1.8468558     4.7659280    -0.0009014
N      1.1825440     4.2860013    -1.1982249
C      2.0176152     3.4979905    -1.9908769
N      3.1857867     3.2872723    -1.2642324
N      3.1205140     3.1671138     1.1982249
C      2.0205410     3.4963013     1.9908769
N      1.2539680     4.4026084     1.2642324
O      1.7994154     3.1048943     3.1177272
O      1.7892096     3.1107866    -3.1177272
C     -0.0020344     4.9039348     1.7725811
C      0.0020344     4.9039348    -1.7725811
C     -3.2039868    -3.9823881     0.0009014
C     -1.8468558    -4.7659280    -0.0009014
N     -1.1825440    -4.2860013    -1.1982249
C     -2.0176152    -3.4979905    -1.9908769
N     -3.1857867    -3.2872723    -1.2642324
N     -3.1205140    -3.1671138     1.1982249
C     -2.0205410    -3.4963013     1.9908769
N     -1.2539680    -4.4026084     1.2642324
O     -1.7994154    -3.1048943     3.1177272
O     -1.7892096    -3.1107866    -3.1177272
C      0.0020344    -4.9039348     1.7725811
C     -0.0020344    -4.9039348    -1.7725811
C     -5.0508426     0.7835399     0.0009014
C     -5.0508426    -0.7835399    -0.0009014
N     -4.3030580    -1.1188875    -1.1982249
C     -4.0381562    -0.0016892    -1.9908769
N     -4.4397547     1.1153360    -1.2642324
N     -4.3030580     1.1188875     1.1982249
C     -4.0381562     0.0016892     1.9908769
N     -4.4397547    -1.1153360     1.2642324
O     -3.5886250     0.0058923     3.1177272
O     -3.5886250    -0.0058923    -3.1177272
C     -4.2459149    -2.4537292     1.7725811
C     -4.2479493    -2.4502056    -1.7725811
H      6.0603286    -1.2185144     0.0570515
H      6.0603286     1.2185144    -0.0570515
H      5.1637135     3.0351953     1.6063973
H      4.0401019     2.3531715     2.8420516
H      5.2104130     2.9543094    -1.6063973
H      4.0579572     2.3222451    -2.8420516
H      1.9748999    -5.8576557     0.0570515
H      4.0854287    -4.6391413    -0.0570515
H      4.0579572    -2.3222451     2.8420516
H      5.2104130    -2.9543094     1.6063973
H      4.0401019    -2.3531715    -2.8420516
H      5.1637135    -3.0351953    -1.6063973
H     -1.9748999     5.8576557     0.0570515
H     -4.0854287     4.6391413    -0.0570515
H     -5.2104130     2.9543094     1.6063973
H     -4.0579572     2.3222451     2.8420516
H     -5.1637135     3.0351953    -1.6063973
H     -4.0401019     2.3531715    -2.8420516
H      4.0854287     4.6391413     0.0570515
H      1.9748999     5.8576557    -0.0570515
H     -0.0178553     4.6754166     2.8420516
H     -0.0466995     5.9895047     1.6063973
H      0.0178553     4.6754166    -2.8420516
H      0.0466995     5.9895047    -1.6063973
H     -4.0854287    -4.6391413     0.0570515
H     -1.9748999    -5.8576557    -0.0570515
H      0.0466995    -5.9895047     1.6063973
H      0.0178553    -4.6754166     2.8420516
H     -0.0466995    -5.9895047    -1.6063973
H     -0.0178553    -4.6754166    -2.8420516
H     -6.0603286     1.2185144     0.0570515
H     -6.0603286    -1.2185144    -0.0570515
H     -4.0401019    -2.3531715     2.8420516
H     -5.1637135    -3.0351953     1.6063973
H     -4.0579572    -2.3222451    -2.8420516
H     -5.2104130    -2.9543094    -1.6063973
