108
A8
C     -9.7410917    -1.4134442     0.0000000
C     -9.7965263    -0.6920206     1.2135679
C     -9.7965263     0.6920206     1.2135679
C     -9.7410917     1.4134442     0.0000000
C     -9.7965263     0.6920206    -1.2135679
C     -9.7965263    -0.6920206    -1.2135679
C     -9.4884445    -2.8042399     0.0000000
C     -9.0711008    -3.9508822     0.0000000
C     -9.4884445     2.8042399     0.0000000
C     -9.0711008     3.9508822     0.0000000
C     -8.3706536     5.1786920     0.0000000
C     -7.9493968     5.7669672     1.2135679
C     -7.0597522     6.8272043     1.2135679
C     -6.5535648     7.3442141     0.0000000
C     -7.0597522     6.8272043    -1.2135679
C     -7.9493968     5.7669672    -1.2135679
C     -8.3706536    -5.1786920     0.0000000
C     -7.9493968    -5.7669672     1.2135679
C     -7.0597522    -6.8272043     1.2135679
C     -6.5535648    -7.3442141     0.0000000
C     -7.0597522    -6.8272043    -1.2135679
C     -7.9493968    -5.7669672    -1.2135679
C     -5.4660395     8.2472269     0.0000000
C     -4.4092882     8.8573425     0.0000000
C     -3.0834936     9.3476607     0.0000000
C     -2.3826562     9.5275269     1.2135679
C     -1.0196417     9.7678632     1.2135679
C     -0.2995520     9.8385447     0.0000000
C     -1.0196417     9.7678632    -1.2135679
C     -2.3826562     9.5275269    -1.2135679
C      6.0946244     7.7293108     0.0000000
C      5.4975706     8.1380303    -1.2135679
C      4.2989557     8.8300510    -1.2135679
C      3.6464673     9.1427550     0.0000000
C      4.2989557     8.8300510     1.2135679
C      5.4975706     8.1380303     1.2135679
C      2.3156793     9.6193539     0.0000000
C      1.1139861     9.8312448     0.0000000
C      9.4424085     2.7003227     1.2135679
C      8.9690385     4.0008960     1.2135679
C      8.6702056     4.6598527     0.0000000
C      8.9690385     4.0008960    -1.2135679
C      9.4424085     2.7003227    -1.2135679
C      7.1727652     6.8151140     0.0000000
C      7.9571147     5.8803626     0.0000000
C      9.6370584     2.0034465     0.0000000
C     -5.4660395    -8.2472269     0.0000000
C     -4.4092882    -8.8573425     0.0000000
C     -3.0834936    -9.3476607     0.0000000
C     -2.3826562    -9.5275269    -1.2135679
C     -1.0196417    -9.7678632    -1.2135679
C     -0.2995520    -9.8385447     0.0000000
C     -1.0196417    -9.7678632     1.2135679
C     -2.3826562    -9.5275269     1.2135679
C      8.6702056    -4.6598527     0.0000000
C      8.9690385    -4.0008960    -1.2135679
C      9.4424085    -2.7003227    -1.2135679
C      9.6370584    -2.0034465     0.0000000
C      9.4424085    -2.7003227     1.2135679
C      8.9690385    -4.0008960     1.2135679
C      9.8753278    -0.6101156     0.0000000
C      9.8753278     0.6101156     0.0000000
C      3.6464673    -9.1427550     0.0000000
C      4.2989557    -8.8300510     1.2135679
C      5.4975706    -8.1380303     1.2135679
C      6.0946244    -7.7293108     0.0000000
C      5.4975706    -8.1380303    -1.2135679
C      4.2989557    -8.8300510    -1.2135679
C      2.3156793    -9.6193539     0.0000000
C      1.1139861    -9.8312448     0.0000000
C      7.1727652    -6.8151140     0.0000000
C      7.9571147    -5.8803626     0.0000000
H     -9.7843634    -1.2373703     2.1517734
H     -9.7843634     1.2373703     2.1517734
H     -9.7843634     1.2373703    -2.1517734
H     -9.7843634    -1.2373703    -2.1517734
H     -8.2906236     5.3413869     2.1517734
H     -6.6998909     7.2371483     2.1517734
H     -6.6998909     7.2371483    -2.1517734
H     -8.2906236     5.3413869    -2.1517734
H     -8.2906236    -5.3413869     2.1517734
H     -6.6998909    -7.2371483     2.1517734
H     -6.6998909    -7.2371483    -2.1517734
H     -8.2906236    -5.3413869    -2.1517734
H     -2.9176088     9.4208499     2.1517734
H     -0.4804650     9.8505841     2.1517734
H     -0.4804650     9.8505841    -2.1517734
H     -2.9176088     9.4208499    -2.1517734
H      5.9637759     7.8548221    -2.1517734
H      3.8205876     9.0921925    -2.1517734
H      3.8205876     9.0921925     2.1517734
H      5.9637759     7.8548221     2.1517734
H      9.6174997     2.1837016     2.1517734
H      8.7710885     4.5091972     2.1517734
H      8.7710885     4.5091972    -2.1517734
H      9.6174997     2.1837016    -2.1517734
H     -2.9176088    -9.4208499    -2.1517734
H     -0.4804650    -9.8505841    -2.1517734
H     -0.4804650    -9.8505841     2.1517734
H     -2.9176088    -9.4208499     2.1517734
H      8.7710885    -4.5091972    -2.1517734
H      9.6174997    -2.1837016    -2.1517734
H      9.6174997    -2.1837016     2.1517734
H      8.7710885    -4.5091972     2.1517734
H      3.8205876    -9.0921925     2.1517734
H      5.9637759    -7.8548221     2.1517734
H      5.9637759    -7.8548221    -2.1517734
H      3.8205876    -9.0921925    -2.1517734
