88
A9
C     -3.8084459    -2.7490740     2.3035487
C     -2.7515944    -2.3185976     1.4900081
C     -1.5454149    -3.0455896     1.4900159
C     -1.4322188    -4.1814404     2.3031275
C     -2.4953275    -4.6088595     3.0952853
C     -3.6895328    -3.8887477     3.0956478
C     -0.3654561    -2.5947741     0.7069329
C      0.7935270    -2.2220419     1.3820672
C      1.9639528    -1.8128724     0.7249814
C      1.9639528    -1.8128724    -0.7249814
C      0.7935270    -2.2220419    -1.3820672
C     -0.3654561    -2.5947741    -0.7069329
C      3.1762689    -1.4588647     1.4734472
C      4.1860721    -0.9033744     0.7151098
C      4.1860721    -0.9033744    -0.7151098
C      3.1762689    -1.4588647    -1.4734472
C      5.5329467    -0.8566630    -1.1482431
C      6.3643673    -0.8284356     0.0000000
C      5.5329467    -0.8566630     1.1482431
C      7.6650878    -1.3100988     0.0000000
C      8.1795037    -1.6430347    -1.3088881
C      7.3662626    -1.6713010    -2.4347566
C      5.9548365    -1.3693440    -2.3683901
C      4.8846454    -1.7688540    -3.2446405
C      3.5607249    -1.8144820    -2.8149746
C      8.1795037    -1.6430347     1.3088881
C      7.3662626    -1.6713010     2.4347566
C      5.9548365    -1.3693440     2.3683901
C      4.8846454    -1.7688540     3.2446405
C      3.5607249    -1.8144820     2.8149746
C     -1.5454149    -3.0455896    -1.4900159
C     -2.7515944    -2.3185976    -1.4900081
C     -3.8084459    -2.7490740    -2.3035487
C     -3.6895328    -3.8887477    -3.0956478
C     -2.4953275    -4.6088595    -3.0952853
C     -1.4322188    -4.1814404    -2.3031275
C     -2.9028781    -1.0645362     0.7069727
C     -3.1160590     0.1340677     1.3822044
C     -3.3229754     1.3564909     0.7249685
C     -3.3229754     1.3564909    -0.7249685
C     -3.1160590     0.1340677    -1.3822044
C     -2.9028781    -1.0645362    -0.7069727
C     -3.4716353     2.6105431    -1.4733033
C     -3.8540278     3.6981907    -0.7152160
C     -3.8540278     3.6981907     0.7152160
C     -3.4716353     2.6105431     1.4733033
C     -3.6768473     5.0342891     1.1483572
C     -3.5670340     5.8589158     0.0000000
C     -3.6768473     5.0342891    -1.1483572
C     -3.0539807     2.9302785    -2.8137246
C     -2.8800334     4.2433966    -3.2434546
C     -3.0994497     5.3649129    -2.3679230
C     -2.5671024     6.7064333    -2.4342697
C     -2.4608015     7.5131568    -1.3085452
C     -2.8754678     7.0613121     0.0000000
C     -3.0539807     2.9302785     2.8137246
C     -2.8800334     4.2433966     3.2434546
C     -3.0994497     5.3649129     2.3679230
C     -2.5671024     6.7064333     2.4342697
C     -2.4608015     7.5131568     1.3085452
H      5.1152665    -2.1400135    -4.2405309
H      2.8212073    -2.2244082    -3.4977755
H      2.8212073    -2.2244082     3.4977755
H      5.1152665    -2.1400135     4.2405309
H      7.7938397    -2.0227356     3.3710039
H      9.2110582    -1.9727056     1.4093601
H      9.2110582    -1.9727056    -1.4093601
H      7.7938397    -2.0227356    -3.3710039
H     -2.1479120     7.0689283    -3.3700672
H     -1.9635625     8.4752523    -1.4085494
H     -1.9635625     8.4752523     1.4085494
H     -2.1479120     7.0689283     3.3700672
H     -2.4712331     4.4093898     4.2374338
H     -2.7665485     2.1328777     3.4938689
H     -2.7665485     2.1328777    -3.4938689
H     -2.4712331     4.4093898    -4.2374338
H      0.7792973    -2.2311998     2.4686378
H      0.7792973    -2.2311998    -2.4686378
H     -3.1250535     0.1161276     2.4687362
H     -3.1250535     0.1161276    -2.4687362
H     -0.4957668    -4.7329111    -2.3015373
H     -2.3907678    -5.4989669    -3.7090966
H     -4.5250881    -4.2115364    -3.7101205
H     -4.7331730    -2.1782537    -2.3028714
H     -0.4957668    -4.7329111     2.3015373
H     -2.3907678    -5.4989669     3.7090966
H     -4.5250881    -4.2115364     3.7101205
H     -4.7331730    -2.1782537     2.3028714
